* GENLIB (Advice library)


* single ended transmission line

.subckt etl (left ,right, COM) { RS=50, TD=1u }

{ EO=8.85e-12 }
{ L=TD/(RS*EO*ER) }

{ LEN=1 }
{ ER_A=TD/(LEN*RS*EO) }

R100 left l 1e-5
R101 right r 1e-5
x100 (l,r,com) stl100 { LEN=1 , Z=RS, ER=ER_A }

.finis

* end subcircuit (estimated transmission line)


* internal transmission line

.subckt itl (left ,right, COM) { RS=50, TD=1u }

T100	left right com IDEAL ( { td }, { rs } )

.finis

* end subcircuit (internal transmission line)


* single-ended transmission line

.subckt stl100 (n0,n100,COM)
+ { Z=96, LEN=1e-3, ER=4 }

* universal constants
{ PI=3.141592653589793 }
{ EO=8.85e-12 }
{ UO=PI*4e-7 }
{ ZFS=((UO/EO)**0.5) }

{ TD=LEN*Z*EO*ER }

{ L=Z*TD }
{ C=LEN*EO*ER }

{ LE=L/100 }
{ CE=C/100 }

* OK, now for the sections

L0 N0 N1 { LE }
C0 N1 COM { CE }
L1 N1 N2 { LE }
C1 N2 COM { CE }
L2 N2 N3 { LE }
C2 N3 COM { CE }
L3 N3 N4 { LE }
C3 N4 COM { CE }
L4 N4 N5 { LE }
C4 N5 COM { CE }
L5 N5 N6 { LE }
C5 N6 COM { CE }
L6 N6 N7 { LE }
C6 N7 COM { CE }
L7 N7 N8 { LE }
C7 N8 COM { CE }
L8 N8 N9 { LE }
C8 N9 COM { CE }
L9 N9 N10 { LE }
C9 N10 COM { CE }
L10 N10 N11 { LE }
C10 N11 COM { CE }
L11 N11 N12 { LE }
C11 N12 COM { CE }
L12 N12 N13 { LE }
C12 N13 COM { CE }
L13 N13 N14 { LE }
C13 N14 COM { CE }
L14 N14 N15 { LE }
C14 N15 COM { CE }
L15 N15 N16 { LE }
C15 N16 COM { CE }
L16 N16 N17 { LE }
C16 N17 COM { CE }
L17 N17 N18 { LE }
C17 N18 COM { CE }
L18 N18 N19 { LE }
C18 N19 COM { CE }
L19 N19 N20 { LE }
C19 N20 COM { CE }
L20 N20 N21 { LE }
C20 N21 COM { CE }
L21 N21 N22 { LE }
C21 N22 COM { CE }
L22 N22 N23 { LE }
C22 N23 COM { CE }
L23 N23 N24 { LE }
C23 N24 COM { CE }
L24 N24 N25 { LE }
C24 N25 COM { CE }
L25 N25 N26 { LE }
C25 N26 COM { CE }
L26 N26 N27 { LE }
C26 N27 COM { CE }
L27 N27 N28 { LE }
C27 N28 COM { CE }
L28 N28 N29 { LE }
C28 N29 COM { CE }
L29 N29 N30 { LE }
C29 N30 COM { CE }
L30 N30 N31 { LE }
C30 N31 COM { CE }
L31 N31 N32 { LE }
C31 N32 COM { CE }
L32 N32 N33 { LE }
C32 N33 COM { CE }
L33 N33 N34 { LE }
C33 N34 COM { CE }
L34 N34 N35 { LE }
C34 N35 COM { CE }
L35 N35 N36 { LE }
C35 N36 COM { CE }
L36 N36 N37 { LE }
C36 N37 COM { CE }
L37 N37 N38 { LE }
C37 N38 COM { CE }
L38 N38 N39 { LE }
C38 N39 COM { CE }
L39 N39 N40 { LE }
C39 N40 COM { CE }
L40 N40 N41 { LE }
C40 N41 COM { CE }
L41 N41 N42 { LE }
C41 N42 COM { CE }
L42 N42 N43 { LE }
C42 N43 COM { CE }
L43 N43 N44 { LE }
C43 N44 COM { CE }
L44 N44 N45 { LE }
C44 N45 COM { CE }
L45 N45 N46 { LE }
C45 N46 COM { CE }
L46 N46 N47 { LE }
C46 N47 COM { CE }
L47 N47 N48 { LE }
C47 N48 COM { CE }
L48 N48 N49 { LE }
C48 N49 COM { CE }
L49 N49 N50 { LE }
C49 N50 COM { CE }
L50 N50 N51 { LE }
C50 N51 COM { CE }
L51 N51 N52 { LE }
C51 N52 COM { CE }
L52 N52 N53 { LE }
C52 N53 COM { CE }
L53 N53 N54 { LE }
C53 N54 COM { CE }
L54 N54 N55 { LE }
C54 N55 COM { CE }
L55 N55 N56 { LE }
C55 N56 COM { CE }
L56 N56 N57 { LE }
C56 N57 COM { CE }
L57 N57 N58 { LE }
C57 N58 COM { CE }
L58 N58 N59 { LE }
C58 N59 COM { CE }
L59 N59 N60 { LE }
C59 N60 COM { CE }
L60 N60 N61 { LE }
C60 N61 COM { CE }
L61 N61 N62 { LE }
C61 N62 COM { CE }
L62 N62 N63 { LE }
C62 N63 COM { CE }
L63 N63 N64 { LE }
C63 N64 COM { CE }
L64 N64 N65 { LE }
C64 N65 COM { CE }
L65 N65 N66 { LE }
C65 N66 COM { CE }
L66 N66 N67 { LE }
C66 N67 COM { CE }
L67 N67 N68 { LE }
C67 N68 COM { CE }
L68 N68 N69 { LE }
C68 N69 COM { CE }
L69 N69 N70 { LE }
C69 N70 COM { CE }
L70 N70 N71 { LE }
C70 N71 COM { CE }
L71 N71 N72 { LE }
C71 N72 COM { CE }
L72 N72 N73 { LE }
C72 N73 COM { CE }
L73 N73 N74 { LE }
C73 N74 COM { CE }
L74 N74 N75 { LE }
C74 N75 COM { CE }
L75 N75 N76 { LE }
C75 N76 COM { CE }
L76 N76 N77 { LE }
C76 N77 COM { CE }
L77 N77 N78 { LE }
C77 N78 COM { CE }
L78 N78 N79 { LE }
C78 N79 COM { CE }
L79 N79 N80 { LE }
C79 N80 COM { CE }
L80 N80 N81 { LE }
C80 N81 COM { CE }
L81 N81 N82 { LE }
C81 N82 COM { CE }
L82 N82 N83 { LE }
C82 N83 COM { CE }
L83 N83 N84 { LE }
C83 N84 COM { CE }
L84 N84 N85 { LE }
C84 N85 COM { CE }
L85 N85 N86 { LE }
C85 N86 COM { CE }
L86 N86 N87 { LE }
C86 N87 COM { CE }
L87 N87 N88 { LE }
C87 N88 COM { CE }
L88 N88 N89 { LE }
C88 N89 COM { CE }
L89 N89 N90 { LE }
C89 N90 COM { CE }
L90 N90 N91 { LE }
C90 N91 COM { CE }
L91 N91 N92 { LE }
C91 N92 COM { CE }
L92 N92 N93 { LE }
C92 N93 COM { CE }
L93 N93 N94 { LE }
C93 N94 COM { CE }
L94 N94 N95 { LE }
C94 N95 COM { CE }
L95 N95 N96 { LE }
C95 N96 COM { CE }
L96 N96 N97 { LE }
C96 N97 COM { CE }
L97 N97 N98 { LE }
C97 N98 COM { CE }
L98 N98 N99 { LE }
C98 N99 COM { CE }
L99 N99 N100 { LE }
C99 N100 COM { CE }

.finis


* estimated differential pair transmission line

* .subckt dtl (::AL,BL,AR,BR,COM)
* + { ZE=96, ZO=64, LEN=1e-3, EREO=4, EREE=4 }
* 
* X100 (::al,bl,ar,br,com) DTL500 
* + { ZE=ze, ZO=zo, LEN=len, EREO=ereo, EREE=eree }
* 
* .finis


.subckt dtl10 (AL,BL,AR,BR,COM)
+ { ZE=96, ZO=64, LEN=1e-3, EREO=4, EREE=4 }

* universal constants
{ PI=3.141592653589793 }
{ EO=8.85e-12 }
{ UO=PI*4e-7 }
{ ZFS=((UO/EO)**0.5) }

* calculate the total effective lumped values
{ L= LEN*(UO/(2*ZFS))*(ZE*(EREE**0.5) + ZO*(EREO**0.5)) }
{ M= LEN*(UO/(2*ZFS))*(ZE*(EREE**0.5) - ZO*(EREO**0.5)) }
{ CG= LEN*EO*ZFS*(EREE**0.5)/ZE }
{ CM= LEN*EO*ZFS*((EREO**0.5)/ZO - (EREE**0.5)/ZE)/2 }
{ K= M/L }

* calculate the individual lumped values
{ LN=L/10 }
{ CGN=CG/10 }
{ CMN=CM/10 }


* OK, now put the various elements down

RAL AL A0 1e-6
RBL BL B0 1e-6
LA0 A0 A1 { LN/2 }
LB0 B0 B1 { LN/2 }
K0 LA0 LB0 { K }
CGA0 A1 COM { CGN }
CGB0 B1 COM { CGN }
CM0 A1 B1 { CMN }
LA1 A1 A2 { LN }
LB1 B1 B2 { LN }
K1 LA1 LB1 { K }
CGA1 A2 COM { CGN }
CGB1 B2 COM { CGN }
CM1 A2 B2 { CMN }
LA2 A2 A3 { LN }
LB2 B2 B3 { LN }
K2 LA2 LB2 { K }
CGA2 A3 COM { CGN }
CGB2 B3 COM { CGN }
CM2 A3 B3 { CMN }
LA3 A3 A4 { LN }
LB3 B3 B4 { LN }
K3 LA3 LB3 { K }
CGA3 A4 COM { CGN }
CGB3 B4 COM { CGN }
CM3 A4 B4 { CMN }
LA4 A4 A5 { LN }
LB4 B4 B5 { LN }
K4 LA4 LB4 { K }
CGA4 A5 COM { CGN }
CGB4 B5 COM { CGN }
CM4 A5 B5 { CMN }
LA5 A5 A6 { LN }
LB5 B5 B6 { LN }
K5 LA5 LB5 { K }
CGA5 A6 COM { CGN }
CGB5 B6 COM { CGN }
CM5 A6 B6 { CMN }
LA6 A6 A7 { LN }
LB6 B6 B7 { LN }
K6 LA6 LB6 { K }
CGA6 A7 COM { CGN }
CGB6 B7 COM { CGN }
CM6 A7 B7 { CMN }
LA7 A7 A8 { LN }
LB7 B7 B8 { LN }
K7 LA7 LB7 { K }
CGA7 A8 COM { CGN }
CGB7 B8 COM { CGN }
CM7 A8 B8 { CMN }
LA8 A8 A9 { LN }
LB8 B8 B9 { LN }
K8 LA8 LB8 { K }
CGA8 A9 COM { CGN }
CGB8 B9 COM { CGN }
CM8 A9 B9 { CMN }
LA9 A9 A10 { LN }
LB9 B9 B10 { LN }
K9 LA9 LB9 { K }
CGA9 A10 COM { CGN }
CGB9 B10 COM { CGN }
CM9 A10 B10 { CMN }
LA10 A10 A11 { LN/2 }
LB10 B10 B11 { LN/2 }
K10 LA10 LB10 { K }
RAR AR A11 3e-2
RBR BR B11 3e-2
.finis



* estimated differential pair transmission line

.subckt dtl100 (AL,BL,AR,BR,COM)
+ { ZE=96, ZO=64, LEN=1e-3, EREO=4, EREE=4 }

* universal constants
{ PI=3.141592653589793 }
{ EO=8.85e-12 }
{ UO=PI*4e-7 }
{ ZFS=((UO/EO)**0.5) }

* calculate the total effective lumped values
{ L= LEN*(UO/(2*ZFS))*(ZE*(EREE**0.5) + ZO*(EREO**0.5)) }
{ M= LEN*(UO/(2*ZFS))*(ZE*(EREE**0.5) - ZO*(EREO**0.5)) }
{ CG= LEN*EO*ZFS*(EREE**0.5)/ZE }
{ CM= LEN*EO*ZFS*((EREO**0.5)/ZO - (EREE**0.5)/ZE)/2 }
{ K= M/L }

* calculate the individual lumped values
{ LN=L/100 }
{ CGN=CG/100 }
{ CMN=CM/100 }


* OK, now put the various elements down

RAL AL A0 1e-6
RBL BL B0 1e-6
LA0 A0 A1 { LN/2 }
LB0 B0 B1 { LN/2 }
K0 LA0 LB0 { K }
CGA0 A1 COM { CGN }
CGB0 B1 COM { CGN }
CM0 A1 B1 { CMN }
LA1 A1 A2 { LN }
LB1 B1 B2 { LN }
K1 LA1 LB1 { K }
CGA1 A2 COM { CGN }
CGB1 B2 COM { CGN }
CM1 A2 B2 { CMN }
LA2 A2 A3 { LN }
LB2 B2 B3 { LN }
K2 LA2 LB2 { K }
CGA2 A3 COM { CGN }
CGB2 B3 COM { CGN }
CM2 A3 B3 { CMN }
LA3 A3 A4 { LN }
LB3 B3 B4 { LN }
K3 LA3 LB3 { K }
CGA3 A4 COM { CGN }
CGB3 B4 COM { CGN }
CM3 A4 B4 { CMN }
LA4 A4 A5 { LN }
LB4 B4 B5 { LN }
K4 LA4 LB4 { K }
CGA4 A5 COM { CGN }
CGB4 B5 COM { CGN }
CM4 A5 B5 { CMN }
LA5 A5 A6 { LN }
LB5 B5 B6 { LN }
K5 LA5 LB5 { K }
CGA5 A6 COM { CGN }
CGB5 B6 COM { CGN }
CM5 A6 B6 { CMN }
LA6 A6 A7 { LN }
LB6 B6 B7 { LN }
K6 LA6 LB6 { K }
CGA6 A7 COM { CGN }
CGB6 B7 COM { CGN }
CM6 A7 B7 { CMN }
LA7 A7 A8 { LN }
LB7 B7 B8 { LN }
K7 LA7 LB7 { K }
CGA7 A8 COM { CGN }
CGB7 B8 COM { CGN }
CM7 A8 B8 { CMN }
LA8 A8 A9 { LN }
LB8 B8 B9 { LN }
K8 LA8 LB8 { K }
CGA8 A9 COM { CGN }
CGB8 B9 COM { CGN }
CM8 A9 B9 { CMN }
LA9 A9 A10 { LN }
LB9 B9 B10 { LN }
K9 LA9 LB9 { K }
CGA9 A10 COM { CGN }
CGB9 B10 COM { CGN }
CM9 A10 B10 { CMN }
LA10 A10 A11 { LN }
LB10 B10 B11 { LN }
K10 LA10 LB10 { K }
CGA10 A11 COM { CGN }
CGB10 B11 COM { CGN }
CM10 A11 B11 { CMN }
LA11 A11 A12 { LN }
LB11 B11 B12 { LN }
K11 LA11 LB11 { K }
CGA11 A12 COM { CGN }
CGB11 B12 COM { CGN }
CM11 A12 B12 { CMN }
LA12 A12 A13 { LN }
LB12 B12 B13 { LN }
K12 LA12 LB12 { K }
CGA12 A13 COM { CGN }
CGB12 B13 COM { CGN }
CM12 A13 B13 { CMN }
LA13 A13 A14 { LN }
LB13 B13 B14 { LN }
K13 LA13 LB13 { K }
CGA13 A14 COM { CGN }
CGB13 B14 COM { CGN }
CM13 A14 B14 { CMN }
LA14 A14 A15 { LN }
LB14 B14 B15 { LN }
K14 LA14 LB14 { K }
CGA14 A15 COM { CGN }
CGB14 B15 COM { CGN }
CM14 A15 B15 { CMN }
LA15 A15 A16 { LN }
LB15 B15 B16 { LN }
K15 LA15 LB15 { K }
CGA15 A16 COM { CGN }
CGB15 B16 COM { CGN }
CM15 A16 B16 { CMN }
LA16 A16 A17 { LN }
LB16 B16 B17 { LN }
K16 LA16 LB16 { K }
CGA16 A17 COM { CGN }
CGB16 B17 COM { CGN }
CM16 A17 B17 { CMN }
LA17 A17 A18 { LN }
LB17 B17 B18 { LN }
K17 LA17 LB17 { K }
CGA17 A18 COM { CGN }
CGB17 B18 COM { CGN }
CM17 A18 B18 { CMN }
LA18 A18 A19 { LN }
LB18 B18 B19 { LN }
K18 LA18 LB18 { K }
CGA18 A19 COM { CGN }
CGB18 B19 COM { CGN }
CM18 A19 B19 { CMN }
LA19 A19 A20 { LN }
LB19 B19 B20 { LN }
K19 LA19 LB19 { K }
CGA19 A20 COM { CGN }
CGB19 B20 COM { CGN }
CM19 A20 B20 { CMN }
LA20 A20 A21 { LN }
LB20 B20 B21 { LN }
K20 LA20 LB20 { K }
CGA20 A21 COM { CGN }
CGB20 B21 COM { CGN }
CM20 A21 B21 { CMN }
LA21 A21 A22 { LN }
LB21 B21 B22 { LN }
K21 LA21 LB21 { K }
CGA21 A22 COM { CGN }
CGB21 B22 COM { CGN }
CM21 A22 B22 { CMN }
LA22 A22 A23 { LN }
LB22 B22 B23 { LN }
K22 LA22 LB22 { K }
CGA22 A23 COM { CGN }
CGB22 B23 COM { CGN }
CM22 A23 B23 { CMN }
LA23 A23 A24 { LN }
LB23 B23 B24 { LN }
K23 LA23 LB23 { K }
CGA23 A24 COM { CGN }
CGB23 B24 COM { CGN }
CM23 A24 B24 { CMN }
LA24 A24 A25 { LN }
LB24 B24 B25 { LN }
K24 LA24 LB24 { K }
CGA24 A25 COM { CGN }
CGB24 B25 COM { CGN }
CM24 A25 B25 { CMN }
LA25 A25 A26 { LN }
LB25 B25 B26 { LN }
K25 LA25 LB25 { K }
CGA25 A26 COM { CGN }
CGB25 B26 COM { CGN }
CM25 A26 B26 { CMN }
LA26 A26 A27 { LN }
LB26 B26 B27 { LN }
K26 LA26 LB26 { K }
CGA26 A27 COM { CGN }
CGB26 B27 COM { CGN }
CM26 A27 B27 { CMN }
LA27 A27 A28 { LN }
LB27 B27 B28 { LN }
K27 LA27 LB27 { K }
CGA27 A28 COM { CGN }
CGB27 B28 COM { CGN }
CM27 A28 B28 { CMN }
LA28 A28 A29 { LN }
LB28 B28 B29 { LN }
K28 LA28 LB28 { K }
CGA28 A29 COM { CGN }
CGB28 B29 COM { CGN }
CM28 A29 B29 { CMN }
LA29 A29 A30 { LN }
LB29 B29 B30 { LN }
K29 LA29 LB29 { K }
CGA29 A30 COM { CGN }
CGB29 B30 COM { CGN }
CM29 A30 B30 { CMN }
LA30 A30 A31 { LN }
LB30 B30 B31 { LN }
K30 LA30 LB30 { K }
CGA30 A31 COM { CGN }
CGB30 B31 COM { CGN }
CM30 A31 B31 { CMN }
LA31 A31 A32 { LN }
LB31 B31 B32 { LN }
K31 LA31 LB31 { K }
CGA31 A32 COM { CGN }
CGB31 B32 COM { CGN }
CM31 A32 B32 { CMN }
LA32 A32 A33 { LN }
LB32 B32 B33 { LN }
K32 LA32 LB32 { K }
CGA32 A33 COM { CGN }
CGB32 B33 COM { CGN }
CM32 A33 B33 { CMN }
LA33 A33 A34 { LN }
LB33 B33 B34 { LN }
K33 LA33 LB33 { K }
CGA33 A34 COM { CGN }
CGB33 B34 COM { CGN }
CM33 A34 B34 { CMN }
LA34 A34 A35 { LN }
LB34 B34 B35 { LN }
K34 LA34 LB34 { K }
CGA34 A35 COM { CGN }
CGB34 B35 COM { CGN }
CM34 A35 B35 { CMN }
LA35 A35 A36 { LN }
LB35 B35 B36 { LN }
K35 LA35 LB35 { K }
CGA35 A36 COM { CGN }
CGB35 B36 COM { CGN }
CM35 A36 B36 { CMN }
LA36 A36 A37 { LN }
LB36 B36 B37 { LN }
K36 LA36 LB36 { K }
CGA36 A37 COM { CGN }
CGB36 B37 COM { CGN }
CM36 A37 B37 { CMN }
LA37 A37 A38 { LN }
LB37 B37 B38 { LN }
K37 LA37 LB37 { K }
CGA37 A38 COM { CGN }
CGB37 B38 COM { CGN }
CM37 A38 B38 { CMN }
LA38 A38 A39 { LN }
LB38 B38 B39 { LN }
K38 LA38 LB38 { K }
CGA38 A39 COM { CGN }
CGB38 B39 COM { CGN }
CM38 A39 B39 { CMN }
LA39 A39 A40 { LN }
LB39 B39 B40 { LN }
K39 LA39 LB39 { K }
CGA39 A40 COM { CGN }
CGB39 B40 COM { CGN }
CM39 A40 B40 { CMN }
LA40 A40 A41 { LN }
LB40 B40 B41 { LN }
K40 LA40 LB40 { K }
CGA40 A41 COM { CGN }
CGB40 B41 COM { CGN }
CM40 A41 B41 { CMN }
LA41 A41 A42 { LN }
LB41 B41 B42 { LN }
K41 LA41 LB41 { K }
CGA41 A42 COM { CGN }
CGB41 B42 COM { CGN }
CM41 A42 B42 { CMN }
LA42 A42 A43 { LN }
LB42 B42 B43 { LN }
K42 LA42 LB42 { K }
CGA42 A43 COM { CGN }
CGB42 B43 COM { CGN }
CM42 A43 B43 { CMN }
LA43 A43 A44 { LN }
LB43 B43 B44 { LN }
K43 LA43 LB43 { K }
CGA43 A44 COM { CGN }
CGB43 B44 COM { CGN }
CM43 A44 B44 { CMN }
LA44 A44 A45 { LN }
LB44 B44 B45 { LN }
K44 LA44 LB44 { K }
CGA44 A45 COM { CGN }
CGB44 B45 COM { CGN }
CM44 A45 B45 { CMN }
LA45 A45 A46 { LN }
LB45 B45 B46 { LN }
K45 LA45 LB45 { K }
CGA45 A46 COM { CGN }
CGB45 B46 COM { CGN }
CM45 A46 B46 { CMN }
LA46 A46 A47 { LN }
LB46 B46 B47 { LN }
K46 LA46 LB46 { K }
CGA46 A47 COM { CGN }
CGB46 B47 COM { CGN }
CM46 A47 B47 { CMN }
LA47 A47 A48 { LN }
LB47 B47 B48 { LN }
K47 LA47 LB47 { K }
CGA47 A48 COM { CGN }
CGB47 B48 COM { CGN }
CM47 A48 B48 { CMN }
LA48 A48 A49 { LN }
LB48 B48 B49 { LN }
K48 LA48 LB48 { K }
CGA48 A49 COM { CGN }
CGB48 B49 COM { CGN }
CM48 A49 B49 { CMN }
LA49 A49 A50 { LN }
LB49 B49 B50 { LN }
K49 LA49 LB49 { K }
CGA49 A50 COM { CGN }
CGB49 B50 COM { CGN }
CM49 A50 B50 { CMN }
LA50 A50 A51 { LN }
LB50 B50 B51 { LN }
K50 LA50 LB50 { K }
CGA50 A51 COM { CGN }
CGB50 B51 COM { CGN }
CM50 A51 B51 { CMN }
LA51 A51 A52 { LN }
LB51 B51 B52 { LN }
K51 LA51 LB51 { K }
CGA51 A52 COM { CGN }
CGB51 B52 COM { CGN }
CM51 A52 B52 { CMN }
LA52 A52 A53 { LN }
LB52 B52 B53 { LN }
K52 LA52 LB52 { K }
CGA52 A53 COM { CGN }
CGB52 B53 COM { CGN }
CM52 A53 B53 { CMN }
LA53 A53 A54 { LN }
LB53 B53 B54 { LN }
K53 LA53 LB53 { K }
CGA53 A54 COM { CGN }
CGB53 B54 COM { CGN }
CM53 A54 B54 { CMN }
LA54 A54 A55 { LN }
LB54 B54 B55 { LN }
K54 LA54 LB54 { K }
CGA54 A55 COM { CGN }
CGB54 B55 COM { CGN }
CM54 A55 B55 { CMN }
LA55 A55 A56 { LN }
LB55 B55 B56 { LN }
K55 LA55 LB55 { K }
CGA55 A56 COM { CGN }
CGB55 B56 COM { CGN }
CM55 A56 B56 { CMN }
LA56 A56 A57 { LN }
LB56 B56 B57 { LN }
K56 LA56 LB56 { K }
CGA56 A57 COM { CGN }
CGB56 B57 COM { CGN }
CM56 A57 B57 { CMN }
LA57 A57 A58 { LN }
LB57 B57 B58 { LN }
K57 LA57 LB57 { K }
CGA57 A58 COM { CGN }
CGB57 B58 COM { CGN }
CM57 A58 B58 { CMN }
LA58 A58 A59 { LN }
LB58 B58 B59 { LN }
K58 LA58 LB58 { K }
CGA58 A59 COM { CGN }
CGB58 B59 COM { CGN }
CM58 A59 B59 { CMN }
LA59 A59 A60 { LN }
LB59 B59 B60 { LN }
K59 LA59 LB59 { K }
CGA59 A60 COM { CGN }
CGB59 B60 COM { CGN }
CM59 A60 B60 { CMN }
LA60 A60 A61 { LN }
LB60 B60 B61 { LN }
K60 LA60 LB60 { K }
CGA60 A61 COM { CGN }
CGB60 B61 COM { CGN }
CM60 A61 B61 { CMN }
LA61 A61 A62 { LN }
LB61 B61 B62 { LN }
K61 LA61 LB61 { K }
CGA61 A62 COM { CGN }
CGB61 B62 COM { CGN }
CM61 A62 B62 { CMN }
LA62 A62 A63 { LN }
LB62 B62 B63 { LN }
K62 LA62 LB62 { K }
CGA62 A63 COM { CGN }
CGB62 B63 COM { CGN }
CM62 A63 B63 { CMN }
LA63 A63 A64 { LN }
LB63 B63 B64 { LN }
K63 LA63 LB63 { K }
CGA63 A64 COM { CGN }
CGB63 B64 COM { CGN }
CM63 A64 B64 { CMN }
LA64 A64 A65 { LN }
LB64 B64 B65 { LN }
K64 LA64 LB64 { K }
CGA64 A65 COM { CGN }
CGB64 B65 COM { CGN }
CM64 A65 B65 { CMN }
LA65 A65 A66 { LN }
LB65 B65 B66 { LN }
K65 LA65 LB65 { K }
CGA65 A66 COM { CGN }
CGB65 B66 COM { CGN }
CM65 A66 B66 { CMN }
LA66 A66 A67 { LN }
LB66 B66 B67 { LN }
K66 LA66 LB66 { K }
CGA66 A67 COM { CGN }
CGB66 B67 COM { CGN }
CM66 A67 B67 { CMN }
LA67 A67 A68 { LN }
LB67 B67 B68 { LN }
K67 LA67 LB67 { K }
CGA67 A68 COM { CGN }
CGB67 B68 COM { CGN }
CM67 A68 B68 { CMN }
LA68 A68 A69 { LN }
LB68 B68 B69 { LN }
K68 LA68 LB68 { K }
CGA68 A69 COM { CGN }
CGB68 B69 COM { CGN }
CM68 A69 B69 { CMN }
LA69 A69 A70 { LN }
LB69 B69 B70 { LN }
K69 LA69 LB69 { K }
CGA69 A70 COM { CGN }
CGB69 B70 COM { CGN }
CM69 A70 B70 { CMN }
LA70 A70 A71 { LN }
LB70 B70 B71 { LN }
K70 LA70 LB70 { K }
CGA70 A71 COM { CGN }
CGB70 B71 COM { CGN }
CM70 A71 B71 { CMN }
LA71 A71 A72 { LN }
LB71 B71 B72 { LN }
K71 LA71 LB71 { K }
CGA71 A72 COM { CGN }
CGB71 B72 COM { CGN }
CM71 A72 B72 { CMN }
LA72 A72 A73 { LN }
LB72 B72 B73 { LN }
K72 LA72 LB72 { K }
CGA72 A73 COM { CGN }
CGB72 B73 COM { CGN }
CM72 A73 B73 { CMN }
LA73 A73 A74 { LN }
LB73 B73 B74 { LN }
K73 LA73 LB73 { K }
CGA73 A74 COM { CGN }
CGB73 B74 COM { CGN }
CM73 A74 B74 { CMN }
LA74 A74 A75 { LN }
LB74 B74 B75 { LN }
K74 LA74 LB74 { K }
CGA74 A75 COM { CGN }
CGB74 B75 COM { CGN }
CM74 A75 B75 { CMN }
LA75 A75 A76 { LN }
LB75 B75 B76 { LN }
K75 LA75 LB75 { K }
CGA75 A76 COM { CGN }
CGB75 B76 COM { CGN }
CM75 A76 B76 { CMN }
LA76 A76 A77 { LN }
LB76 B76 B77 { LN }
K76 LA76 LB76 { K }
CGA76 A77 COM { CGN }
CGB76 B77 COM { CGN }
CM76 A77 B77 { CMN }
LA77 A77 A78 { LN }
LB77 B77 B78 { LN }
K77 LA77 LB77 { K }
CGA77 A78 COM { CGN }
CGB77 B78 COM { CGN }
CM77 A78 B78 { CMN }
LA78 A78 A79 { LN }
LB78 B78 B79 { LN }
K78 LA78 LB78 { K }
CGA78 A79 COM { CGN }
CGB78 B79 COM { CGN }
CM78 A79 B79 { CMN }
LA79 A79 A80 { LN }
LB79 B79 B80 { LN }
K79 LA79 LB79 { K }
CGA79 A80 COM { CGN }
CGB79 B80 COM { CGN }
CM79 A80 B80 { CMN }
LA80 A80 A81 { LN }
LB80 B80 B81 { LN }
K80 LA80 LB80 { K }
CGA80 A81 COM { CGN }
CGB80 B81 COM { CGN }
CM80 A81 B81 { CMN }
LA81 A81 A82 { LN }
LB81 B81 B82 { LN }
K81 LA81 LB81 { K }
CGA81 A82 COM { CGN }
CGB81 B82 COM { CGN }
CM81 A82 B82 { CMN }
LA82 A82 A83 { LN }
LB82 B82 B83 { LN }
K82 LA82 LB82 { K }
CGA82 A83 COM { CGN }
CGB82 B83 COM { CGN }
CM82 A83 B83 { CMN }
LA83 A83 A84 { LN }
LB83 B83 B84 { LN }
K83 LA83 LB83 { K }
CGA83 A84 COM { CGN }
CGB83 B84 COM { CGN }
CM83 A84 B84 { CMN }
LA84 A84 A85 { LN }
LB84 B84 B85 { LN }
K84 LA84 LB84 { K }
CGA84 A85 COM { CGN }
CGB84 B85 COM { CGN }
CM84 A85 B85 { CMN }
LA85 A85 A86 { LN }
LB85 B85 B86 { LN }
K85 LA85 LB85 { K }
CGA85 A86 COM { CGN }
CGB85 B86 COM { CGN }
CM85 A86 B86 { CMN }
LA86 A86 A87 { LN }
LB86 B86 B87 { LN }
K86 LA86 LB86 { K }
CGA86 A87 COM { CGN }
CGB86 B87 COM { CGN }
CM86 A87 B87 { CMN }
LA87 A87 A88 { LN }
LB87 B87 B88 { LN }
K87 LA87 LB87 { K }
CGA87 A88 COM { CGN }
CGB87 B88 COM { CGN }
CM87 A88 B88 { CMN }
LA88 A88 A89 { LN }
LB88 B88 B89 { LN }
K88 LA88 LB88 { K }
CGA88 A89 COM { CGN }
CGB88 B89 COM { CGN }
CM88 A89 B89 { CMN }
LA89 A89 A90 { LN }
LB89 B89 B90 { LN }
K89 LA89 LB89 { K }
CGA89 A90 COM { CGN }
CGB89 B90 COM { CGN }
CM89 A90 B90 { CMN }
LA90 A90 A91 { LN }
LB90 B90 B91 { LN }
K90 LA90 LB90 { K }
CGA90 A91 COM { CGN }
CGB90 B91 COM { CGN }
CM90 A91 B91 { CMN }
LA91 A91 A92 { LN }
LB91 B91 B92 { LN }
K91 LA91 LB91 { K }
CGA91 A92 COM { CGN }
CGB91 B92 COM { CGN }
CM91 A92 B92 { CMN }
LA92 A92 A93 { LN }
LB92 B92 B93 { LN }
K92 LA92 LB92 { K }
CGA92 A93 COM { CGN }
CGB92 B93 COM { CGN }
CM92 A93 B93 { CMN }
LA93 A93 A94 { LN }
LB93 B93 B94 { LN }
K93 LA93 LB93 { K }
CGA93 A94 COM { CGN }
CGB93 B94 COM { CGN }
CM93 A94 B94 { CMN }
LA94 A94 A95 { LN }
LB94 B94 B95 { LN }
K94 LA94 LB94 { K }
CGA94 A95 COM { CGN }
CGB94 B95 COM { CGN }
CM94 A95 B95 { CMN }
LA95 A95 A96 { LN }
LB95 B95 B96 { LN }
K95 LA95 LB95 { K }
CGA95 A96 COM { CGN }
CGB95 B96 COM { CGN }
CM95 A96 B96 { CMN }
LA96 A96 A97 { LN }
LB96 B96 B97 { LN }
K96 LA96 LB96 { K }
CGA96 A97 COM { CGN }
CGB96 B97 COM { CGN }
CM96 A97 B97 { CMN }
LA97 A97 A98 { LN }
LB97 B97 B98 { LN }
K97 LA97 LB97 { K }
CGA97 A98 COM { CGN }
CGB97 B98 COM { CGN }
CM97 A98 B98 { CMN }
LA98 A98 A99 { LN }
LB98 B98 B99 { LN }
K98 LA98 LB98 { K }
CGA98 A99 COM { CGN }
CGB98 B99 COM { CGN }
CM98 A99 B99 { CMN }
LA99 A99 A100 { LN }
LB99 B99 B100 { LN }
K99 LA99 LB99 { K }
CGA99 A100 COM { CGN }
CGB99 B100 COM { CGN }
CM99 A100 B100 { CMN }
LA100 A100 A101 { LN/2 }
LB100 B100 B101 { LN/2 }
K100 LA100 LB100 { K }
RAR AR A101 1e-6
RBR BR B101 1e-6

.finis


* estimated differential pair transmission line

.subckt dtl200 (AL,BL,AR,BR,COM)
+ { ZE=96, ZO=64, LEN=1e-3, EREO=4, EREE=4 }

* universal constants
* Pi
{ PI=3.141592653589793 }
* free space permittivity
{ EO=8.85e-12 }
* free space permeability
{ UO=PI*4e-7 }
* free space characteristic impedance
{ ZFS=((UO/EO)**0.5) }

* calculate the total effective lumped values
{ L= LEN*(UO/(2*ZFS))*(ZE*(EREE**0.5) + ZO*(EREO**0.5)) }
{ M= LEN*(UO/(2*ZFS))*(ZE*(EREE**0.5) - ZO*(EREO**0.5)) }
{ CG= LEN*EO*ZFS*(EREE**0.5)/ZE }
{ CM= LEN*EO*ZFS*((EREO**0.5)/ZO - (EREE**0.5)/ZE)/2 }
{ K= M/L }

* calculate the individual lumped values
{ LN=L/200 }
{ CGN=CG/200 }
{ CMN=CM/200 }


* OK, now put the various elements down

RAL AL A0 1e-6
RBL BL B0 1e-6
LA0 A0 A1 { LN/2 }
LB0 B0 B1 { LN/2 }
K0 LA0 LB0 { K }
CGA0 A1 COM { CGN }
CGB0 B1 COM { CGN }
CM0 A1 B1 { CMN }
LA1 A1 A2 { LN }
LB1 B1 B2 { LN }
K1 LA1 LB1 { K }
CGA1 A2 COM { CGN }
CGB1 B2 COM { CGN }
CM1 A2 B2 { CMN }
LA2 A2 A3 { LN }
LB2 B2 B3 { LN }
K2 LA2 LB2 { K }
CGA2 A3 COM { CGN }
CGB2 B3 COM { CGN }
CM2 A3 B3 { CMN }
LA3 A3 A4 { LN }
LB3 B3 B4 { LN }
K3 LA3 LB3 { K }
CGA3 A4 COM { CGN }
CGB3 B4 COM { CGN }
CM3 A4 B4 { CMN }
LA4 A4 A5 { LN }
LB4 B4 B5 { LN }
K4 LA4 LB4 { K }
CGA4 A5 COM { CGN }
CGB4 B5 COM { CGN }
CM4 A5 B5 { CMN }
LA5 A5 A6 { LN }
LB5 B5 B6 { LN }
K5 LA5 LB5 { K }
CGA5 A6 COM { CGN }
CGB5 B6 COM { CGN }
CM5 A6 B6 { CMN }
LA6 A6 A7 { LN }
LB6 B6 B7 { LN }
K6 LA6 LB6 { K }
CGA6 A7 COM { CGN }
CGB6 B7 COM { CGN }
CM6 A7 B7 { CMN }
LA7 A7 A8 { LN }
LB7 B7 B8 { LN }
K7 LA7 LB7 { K }
CGA7 A8 COM { CGN }
CGB7 B8 COM { CGN }
CM7 A8 B8 { CMN }
LA8 A8 A9 { LN }
LB8 B8 B9 { LN }
K8 LA8 LB8 { K }
CGA8 A9 COM { CGN }
CGB8 B9 COM { CGN }
CM8 A9 B9 { CMN }
LA9 A9 A10 { LN }
LB9 B9 B10 { LN }
K9 LA9 LB9 { K }
CGA9 A10 COM { CGN }
CGB9 B10 COM { CGN }
CM9 A10 B10 { CMN }
LA10 A10 A11 { LN }
LB10 B10 B11 { LN }
K10 LA10 LB10 { K }
CGA10 A11 COM { CGN }
CGB10 B11 COM { CGN }
CM10 A11 B11 { CMN }
LA11 A11 A12 { LN }
LB11 B11 B12 { LN }
K11 LA11 LB11 { K }
CGA11 A12 COM { CGN }
CGB11 B12 COM { CGN }
CM11 A12 B12 { CMN }
LA12 A12 A13 { LN }
LB12 B12 B13 { LN }
K12 LA12 LB12 { K }
CGA12 A13 COM { CGN }
CGB12 B13 COM { CGN }
CM12 A13 B13 { CMN }
LA13 A13 A14 { LN }
LB13 B13 B14 { LN }
K13 LA13 LB13 { K }
CGA13 A14 COM { CGN }
CGB13 B14 COM { CGN }
CM13 A14 B14 { CMN }
LA14 A14 A15 { LN }
LB14 B14 B15 { LN }
K14 LA14 LB14 { K }
CGA14 A15 COM { CGN }
CGB14 B15 COM { CGN }
CM14 A15 B15 { CMN }
LA15 A15 A16 { LN }
LB15 B15 B16 { LN }
K15 LA15 LB15 { K }
CGA15 A16 COM { CGN }
CGB15 B16 COM { CGN }
CM15 A16 B16 { CMN }
LA16 A16 A17 { LN }
LB16 B16 B17 { LN }
K16 LA16 LB16 { K }
CGA16 A17 COM { CGN }
CGB16 B17 COM { CGN }
CM16 A17 B17 { CMN }
LA17 A17 A18 { LN }
LB17 B17 B18 { LN }
K17 LA17 LB17 { K }
CGA17 A18 COM { CGN }
CGB17 B18 COM { CGN }
CM17 A18 B18 { CMN }
LA18 A18 A19 { LN }
LB18 B18 B19 { LN }
K18 LA18 LB18 { K }
CGA18 A19 COM { CGN }
CGB18 B19 COM { CGN }
CM18 A19 B19 { CMN }
LA19 A19 A20 { LN }
LB19 B19 B20 { LN }
K19 LA19 LB19 { K }
CGA19 A20 COM { CGN }
CGB19 B20 COM { CGN }
CM19 A20 B20 { CMN }
LA20 A20 A21 { LN }
LB20 B20 B21 { LN }
K20 LA20 LB20 { K }
CGA20 A21 COM { CGN }
CGB20 B21 COM { CGN }
CM20 A21 B21 { CMN }
LA21 A21 A22 { LN }
LB21 B21 B22 { LN }
K21 LA21 LB21 { K }
CGA21 A22 COM { CGN }
CGB21 B22 COM { CGN }
CM21 A22 B22 { CMN }
LA22 A22 A23 { LN }
LB22 B22 B23 { LN }
K22 LA22 LB22 { K }
CGA22 A23 COM { CGN }
CGB22 B23 COM { CGN }
CM22 A23 B23 { CMN }
LA23 A23 A24 { LN }
LB23 B23 B24 { LN }
K23 LA23 LB23 { K }
CGA23 A24 COM { CGN }
CGB23 B24 COM { CGN }
CM23 A24 B24 { CMN }
LA24 A24 A25 { LN }
LB24 B24 B25 { LN }
K24 LA24 LB24 { K }
CGA24 A25 COM { CGN }
CGB24 B25 COM { CGN }
CM24 A25 B25 { CMN }
LA25 A25 A26 { LN }
LB25 B25 B26 { LN }
K25 LA25 LB25 { K }
CGA25 A26 COM { CGN }
CGB25 B26 COM { CGN }
CM25 A26 B26 { CMN }
LA26 A26 A27 { LN }
LB26 B26 B27 { LN }
K26 LA26 LB26 { K }
CGA26 A27 COM { CGN }
CGB26 B27 COM { CGN }
CM26 A27 B27 { CMN }
LA27 A27 A28 { LN }
LB27 B27 B28 { LN }
K27 LA27 LB27 { K }
CGA27 A28 COM { CGN }
CGB27 B28 COM { CGN }
CM27 A28 B28 { CMN }
LA28 A28 A29 { LN }
LB28 B28 B29 { LN }
K28 LA28 LB28 { K }
CGA28 A29 COM { CGN }
CGB28 B29 COM { CGN }
CM28 A29 B29 { CMN }
LA29 A29 A30 { LN }
LB29 B29 B30 { LN }
K29 LA29 LB29 { K }
CGA29 A30 COM { CGN }
CGB29 B30 COM { CGN }
CM29 A30 B30 { CMN }
LA30 A30 A31 { LN }
LB30 B30 B31 { LN }
K30 LA30 LB30 { K }
CGA30 A31 COM { CGN }
CGB30 B31 COM { CGN }
CM30 A31 B31 { CMN }
LA31 A31 A32 { LN }
LB31 B31 B32 { LN }
K31 LA31 LB31 { K }
CGA31 A32 COM { CGN }
CGB31 B32 COM { CGN }
CM31 A32 B32 { CMN }
LA32 A32 A33 { LN }
LB32 B32 B33 { LN }
K32 LA32 LB32 { K }
CGA32 A33 COM { CGN }
CGB32 B33 COM { CGN }
CM32 A33 B33 { CMN }
LA33 A33 A34 { LN }
LB33 B33 B34 { LN }
K33 LA33 LB33 { K }
CGA33 A34 COM { CGN }
CGB33 B34 COM { CGN }
CM33 A34 B34 { CMN }
LA34 A34 A35 { LN }
LB34 B34 B35 { LN }
K34 LA34 LB34 { K }
CGA34 A35 COM { CGN }
CGB34 B35 COM { CGN }
CM34 A35 B35 { CMN }
LA35 A35 A36 { LN }
LB35 B35 B36 { LN }
K35 LA35 LB35 { K }
CGA35 A36 COM { CGN }
CGB35 B36 COM { CGN }
CM35 A36 B36 { CMN }
LA36 A36 A37 { LN }
LB36 B36 B37 { LN }
K36 LA36 LB36 { K }
CGA36 A37 COM { CGN }
CGB36 B37 COM { CGN }
CM36 A37 B37 { CMN }
LA37 A37 A38 { LN }
LB37 B37 B38 { LN }
K37 LA37 LB37 { K }
CGA37 A38 COM { CGN }
CGB37 B38 COM { CGN }
CM37 A38 B38 { CMN }
LA38 A38 A39 { LN }
LB38 B38 B39 { LN }
K38 LA38 LB38 { K }
CGA38 A39 COM { CGN }
CGB38 B39 COM { CGN }
CM38 A39 B39 { CMN }
LA39 A39 A40 { LN }
LB39 B39 B40 { LN }
K39 LA39 LB39 { K }
CGA39 A40 COM { CGN }
CGB39 B40 COM { CGN }
CM39 A40 B40 { CMN }
LA40 A40 A41 { LN }
LB40 B40 B41 { LN }
K40 LA40 LB40 { K }
CGA40 A41 COM { CGN }
CGB40 B41 COM { CGN }
CM40 A41 B41 { CMN }
LA41 A41 A42 { LN }
LB41 B41 B42 { LN }
K41 LA41 LB41 { K }
CGA41 A42 COM { CGN }
CGB41 B42 COM { CGN }
CM41 A42 B42 { CMN }
LA42 A42 A43 { LN }
LB42 B42 B43 { LN }
K42 LA42 LB42 { K }
CGA42 A43 COM { CGN }
CGB42 B43 COM { CGN }
CM42 A43 B43 { CMN }
LA43 A43 A44 { LN }
LB43 B43 B44 { LN }
K43 LA43 LB43 { K }
CGA43 A44 COM { CGN }
CGB43 B44 COM { CGN }
CM43 A44 B44 { CMN }
LA44 A44 A45 { LN }
LB44 B44 B45 { LN }
K44 LA44 LB44 { K }
CGA44 A45 COM { CGN }
CGB44 B45 COM { CGN }
CM44 A45 B45 { CMN }
LA45 A45 A46 { LN }
LB45 B45 B46 { LN }
K45 LA45 LB45 { K }
CGA45 A46 COM { CGN }
CGB45 B46 COM { CGN }
CM45 A46 B46 { CMN }
LA46 A46 A47 { LN }
LB46 B46 B47 { LN }
K46 LA46 LB46 { K }
CGA46 A47 COM { CGN }
CGB46 B47 COM { CGN }
CM46 A47 B47 { CMN }
LA47 A47 A48 { LN }
LB47 B47 B48 { LN }
K47 LA47 LB47 { K }
CGA47 A48 COM { CGN }
CGB47 B48 COM { CGN }
CM47 A48 B48 { CMN }
LA48 A48 A49 { LN }
LB48 B48 B49 { LN }
K48 LA48 LB48 { K }
CGA48 A49 COM { CGN }
CGB48 B49 COM { CGN }
CM48 A49 B49 { CMN }
LA49 A49 A50 { LN }
LB49 B49 B50 { LN }
K49 LA49 LB49 { K }
CGA49 A50 COM { CGN }
CGB49 B50 COM { CGN }
CM49 A50 B50 { CMN }
LA50 A50 A51 { LN }
LB50 B50 B51 { LN }
K50 LA50 LB50 { K }
CGA50 A51 COM { CGN }
CGB50 B51 COM { CGN }
CM50 A51 B51 { CMN }
LA51 A51 A52 { LN }
LB51 B51 B52 { LN }
K51 LA51 LB51 { K }
CGA51 A52 COM { CGN }
CGB51 B52 COM { CGN }
CM51 A52 B52 { CMN }
LA52 A52 A53 { LN }
LB52 B52 B53 { LN }
K52 LA52 LB52 { K }
CGA52 A53 COM { CGN }
CGB52 B53 COM { CGN }
CM52 A53 B53 { CMN }
LA53 A53 A54 { LN }
LB53 B53 B54 { LN }
K53 LA53 LB53 { K }
CGA53 A54 COM { CGN }
CGB53 B54 COM { CGN }
CM53 A54 B54 { CMN }
LA54 A54 A55 { LN }
LB54 B54 B55 { LN }
K54 LA54 LB54 { K }
CGA54 A55 COM { CGN }
CGB54 B55 COM { CGN }
CM54 A55 B55 { CMN }
LA55 A55 A56 { LN }
LB55 B55 B56 { LN }
K55 LA55 LB55 { K }
CGA55 A56 COM { CGN }
CGB55 B56 COM { CGN }
CM55 A56 B56 { CMN }
LA56 A56 A57 { LN }
LB56 B56 B57 { LN }
K56 LA56 LB56 { K }
CGA56 A57 COM { CGN }
CGB56 B57 COM { CGN }
CM56 A57 B57 { CMN }
LA57 A57 A58 { LN }
LB57 B57 B58 { LN }
K57 LA57 LB57 { K }
CGA57 A58 COM { CGN }
CGB57 B58 COM { CGN }
CM57 A58 B58 { CMN }
LA58 A58 A59 { LN }
LB58 B58 B59 { LN }
K58 LA58 LB58 { K }
CGA58 A59 COM { CGN }
CGB58 B59 COM { CGN }
CM58 A59 B59 { CMN }
LA59 A59 A60 { LN }
LB59 B59 B60 { LN }
K59 LA59 LB59 { K }
CGA59 A60 COM { CGN }
CGB59 B60 COM { CGN }
CM59 A60 B60 { CMN }
LA60 A60 A61 { LN }
LB60 B60 B61 { LN }
K60 LA60 LB60 { K }
CGA60 A61 COM { CGN }
CGB60 B61 COM { CGN }
CM60 A61 B61 { CMN }
LA61 A61 A62 { LN }
LB61 B61 B62 { LN }
K61 LA61 LB61 { K }
CGA61 A62 COM { CGN }
CGB61 B62 COM { CGN }
CM61 A62 B62 { CMN }
LA62 A62 A63 { LN }
LB62 B62 B63 { LN }
K62 LA62 LB62 { K }
CGA62 A63 COM { CGN }
CGB62 B63 COM { CGN }
CM62 A63 B63 { CMN }
LA63 A63 A64 { LN }
LB63 B63 B64 { LN }
K63 LA63 LB63 { K }
CGA63 A64 COM { CGN }
CGB63 B64 COM { CGN }
CM63 A64 B64 { CMN }
LA64 A64 A65 { LN }
LB64 B64 B65 { LN }
K64 LA64 LB64 { K }
CGA64 A65 COM { CGN }
CGB64 B65 COM { CGN }
CM64 A65 B65 { CMN }
LA65 A65 A66 { LN }
LB65 B65 B66 { LN }
K65 LA65 LB65 { K }
CGA65 A66 COM { CGN }
CGB65 B66 COM { CGN }
CM65 A66 B66 { CMN }
LA66 A66 A67 { LN }
LB66 B66 B67 { LN }
K66 LA66 LB66 { K }
CGA66 A67 COM { CGN }
CGB66 B67 COM { CGN }
CM66 A67 B67 { CMN }
LA67 A67 A68 { LN }
LB67 B67 B68 { LN }
K67 LA67 LB67 { K }
CGA67 A68 COM { CGN }
CGB67 B68 COM { CGN }
CM67 A68 B68 { CMN }
LA68 A68 A69 { LN }
LB68 B68 B69 { LN }
K68 LA68 LB68 { K }
CGA68 A69 COM { CGN }
CGB68 B69 COM { CGN }
CM68 A69 B69 { CMN }
LA69 A69 A70 { LN }
LB69 B69 B70 { LN }
K69 LA69 LB69 { K }
CGA69 A70 COM { CGN }
CGB69 B70 COM { CGN }
CM69 A70 B70 { CMN }
LA70 A70 A71 { LN }
LB70 B70 B71 { LN }
K70 LA70 LB70 { K }
CGA70 A71 COM { CGN }
CGB70 B71 COM { CGN }
CM70 A71 B71 { CMN }
LA71 A71 A72 { LN }
LB71 B71 B72 { LN }
K71 LA71 LB71 { K }
CGA71 A72 COM { CGN }
CGB71 B72 COM { CGN }
CM71 A72 B72 { CMN }
LA72 A72 A73 { LN }
LB72 B72 B73 { LN }
K72 LA72 LB72 { K }
CGA72 A73 COM { CGN }
CGB72 B73 COM { CGN }
CM72 A73 B73 { CMN }
LA73 A73 A74 { LN }
LB73 B73 B74 { LN }
K73 LA73 LB73 { K }
CGA73 A74 COM { CGN }
CGB73 B74 COM { CGN }
CM73 A74 B74 { CMN }
LA74 A74 A75 { LN }
LB74 B74 B75 { LN }
K74 LA74 LB74 { K }
CGA74 A75 COM { CGN }
CGB74 B75 COM { CGN }
CM74 A75 B75 { CMN }
LA75 A75 A76 { LN }
LB75 B75 B76 { LN }
K75 LA75 LB75 { K }
CGA75 A76 COM { CGN }
CGB75 B76 COM { CGN }
CM75 A76 B76 { CMN }
LA76 A76 A77 { LN }
LB76 B76 B77 { LN }
K76 LA76 LB76 { K }
CGA76 A77 COM { CGN }
CGB76 B77 COM { CGN }
CM76 A77 B77 { CMN }
LA77 A77 A78 { LN }
LB77 B77 B78 { LN }